pcf
* control data
restart estimation
    89  668  15  0  16
     1     1   single   point   1   0   0
5.0   2.0    0.3    0.03    10  999
5.0   5.0   1.0e-3
0.1   noaui
  -1  .005  4   4  .005   4
1    1    1
* parameter groups
CNP       relative     1.0000E-02  1.0000E-03  switch      2.000      parabolic
PHSYN     relative     1.0000E-02  1.0000E-03  switch      2.000      parabolic
FCBOD     relative     1.0000E-02  1.0000E-03  switch      2.000      parabolic
ORGN      relative     1.0000E-02  1.0000E-03  switch      2.000      parabolic
NH4N      relative     1.0000E-02  1.0000E-03  switch      2.000      parabolic
NO3N      relative     1.0000E-02  1.0000E-03  switch      2.000      parabolic
ORGP      relative     1.0000E-02  1.0000E-03  switch      2.000      parabolic
PO4P      relative     1.0000E-02  1.0000E-03  switch      2.000      parabolic
PHYT      relative     1.0000E-02  1.0000E-07  switch      2.000      parabolic
BASL      relative     1.0000E-02  1.0000E-07  switch      2.000      parabolic
DETR      relative     1.0000E-02  1.0000E-03  switch      2.000      parabolic
REAER     relative     1.0000E-02  1.0000E-03  switch      2.000      parabolic
MANN      relative     1.0000E-02  1.0000E-03  switch      2.000      parabolic
ALGAE     relative     1.0000E-02  1.0000E-03  switch      2.000      parabolic
SOD       relative     1.0000E-02  1.0000E-03  switch      2.000      parabolic
* parameter data
Carb             log    factor    4.00E+01    3.00E+01    6.00E+01    CNP      1.000    0.000    1
Nitr             log    factor    7.00E+00    5.00E+00    9.00E+00    CNP      1.000    0.000    1
Phos             log    factor    1.00E+00    5.00E-01    2.00E+00    CNP      1.000    0.000    1
PhotoqN          log    factor    1.40E+00    1.20E+00    1.80E+00    PHSYN    1.000    0.000    1
Rq               log    factor    9.20E-01    8.50E-01    1.00E+00    PHSYN    1.000    0.000    1
fCBODox          log    factor    2.50E+00    1.00E-05    5.00E+00    FCBOD    1.000    0.000    1
fCBODtemp        log    factor    1.03E+00    1.00E+00    1.07E+00    FCBOD    1.000    0.000    1
ONhyd            log    factor    2.00E-01    5.00E-02    3.00E-01    ORGN     1.000    0.000    1
ONtemp           log    factor    1.02E+00    1.00E+00    1.07E+00    ORGN     1.000    0.000    1
ONsv             log    factor    1.50E+00    5.00E-02    3.00E+00    ORGN     1.000    0.000    1
NH4nit           log    factor    1.50E+00    5.00E-03    3.00E+00    NH4N     1.000    0.000    1
NH4temp          log    factor    1.02E+00    1.00E+00    1.07E+00    NH4N     1.000    0.000    1
DNF              log    factor    1.00E+00    1.00E-05    2.00E+00    NO3N     1.000    0.000    1
DNFtemp          log    factor    1.02E+00    1.00E+00    1.07E+00    NO3N     1.000    0.000    1
DNFsed           log    factor    5.00E-01    1.00E-05    1.00E+00    NO3N     1.000    0.000    1
DNFsed_temp      log    factor    1.02E+00    1.00E+00    1.07E+00    NO3N     1.000    0.000    1
OPhyd            log    factor    2.00E-01    5.00E-02    3.00E-01    ORGP     1.000    0.000    1
OPtemp           log    factor    1.02E+00    1.00E+00    1.07E+00    ORGP     1.000    0.000    1
OPsv             log    factor    1.00E+00    5.00E-02    2.00E+00    ORGP     1.000    0.000    1
PO4sv            log    factor    1.00E+00    1.00E-05    2.00E+00    PO4P     1.000    0.000    1
PO4sedox         log    factor    1.00E+00    1.00E-05    2.00E+00    PO4P     1.000    0.000    1
Phytgr           log    factor    2.00E+00    1.50E+00    3.00E+00    PHYT     1.000    0.000    1
Phytgr_temp      log    factor    1.02E+00    1.00E+00    1.07E+00    PHYT     1.000    0.000    1
Phytresp         log    factor    2.50E-01    5.00E-02    5.00E-01    PHYT     1.000    0.000    1
Phytresp_tmp     log    factor    1.02E+00    1.00E+00    1.07E+00    PHYT     1.000    0.000    1
Phytdr           log    factor    5.00E-01    1.00E-05    1.00E+00    PHYT     1.000    0.000    1
Phytdr_tmp       log    factor    1.02E+00    1.00E+00    1.07E+00    PHYT     1.000    0.000    1
Phytnitr         log    factor    1.70E+01    1.00E+01    2.50E+01    PHYT     1.000    0.000    1
Phytphos         log    factor    2.00E+00    1.00E+00    5.00E+00    PHYT     1.000    0.000    1
PhytDIC          log    factor    1.30E-05    1.30E-06    1.30E-04    PHYT     1.000    0.000    1
Phytlight        log    factor    7.00E+01    4.00E+01    1.10E+02    PHYT     1.000    0.000    1
PhytNH4          log    factor    2.20E+01    1.50E+01    3.00E+01    PHYT     1.000    0.000    1
Phytsv           log    factor    1.00E+00    5.00E-02    2.00E+00    PHYT     1.000    0.000    1
BPgr             log    factor    1.00E+02    5.00E+01    2.00E+02    BASL     1.000    0.000    1
BPgr_temp        log    factor    1.02E+00    1.00E+00    1.07E+00    BASL     1.000    0.000    1
BPresp           log    factor    1.00E-01    2.00E-02    2.00E-01    BASL     1.000    0.000    1
BPphresp         log    factor    3.00E-01    1.00E-05    6.00E-01    BASL     1.000    0.000    1
BPpHresp_tmp     log    factor    1.02E+00    1.00E+00    1.07E+00    BASL     1.000    0.000    1
BPexc            log    factor    2.50E-01    1.00E-05    5.00E-01    BASL     1.000    0.000    1
BPexc_temp       log    factor    1.02E+00    1.00E+00    1.07E+00    BASL     1.000    0.000    1
BPdr             log    factor    2.00E-01    1.00E-05    5.00E-01    BASL     1.000    0.000    1
BPcc             log    factor    1.00E+02    5.00E+01    2.00E+02    BASL     1.000    0.000    1
BPdr_temp        log    factor    1.02E+00    1.00E+00    1.07E+00    BASL     1.000    0.000    1
BPnitrk          log    factor    3.00E+02    1.00E+02    5.00E+02    BASL     1.000    0.000    1
BPphosk          log    factor    7.50E+01    2.50E+01    1.00E+02    BASL     1.000    0.000    1
BPdick           log    factor    1.30E-05    1.30E-06    1.30E-04    BASL     1.000    0.000    1
BPlightk         log    factor    7.00E+01    4.00E+01    1.10E+02    BASL     1.000    0.000    1
BPnh4            log    factor    2.20E+01    1.50E+01    3.00E+01    BASL     1.000    0.000    1
BPnitrsq         log    factor    1.60E+01    7.20E+00    3.60E+01    BASL     1.000    0.000    1
BPphossq         log    factor    3.00E+00    1.00E+00    5.00E+00    BASL     1.000    0.000    1
BPnitrmu         log    factor    1.00E+03    3.50E+02    1.50E+03    BASL     1.000    0.000    1
BPphosmu         log    factor    1.00E+02    5.00E+01    2.00E+02    BASL     1.000    0.000    1
BPnitrik         log    factor    3.00E+00    1.05E+00    5.00E+00    BASL     1.000    0.000    1
BPphosik         log    factor    3.00E+00    1.05E+00    5.00E+00    BASL     1.000    0.000    1
BPnitrwc         log    factor    5.00E-01    1.00E-05    1.00E+00    BASL     1.000    0.000    1
BPphoswc         log    factor    5.00E-01    1.00E-05    1.00E+00    BASL     1.000    0.000    1
BPsf             log    factor    5.00E-02    1.00E-05    1.00E-01    BASL     1.000    0.000    1
BPexps           log    factor    1.00E+00    1.00E-05    2.00E+00    BASL     1.000    0.000    1
BPbios           log    factor    5.00E+00    1.00E-05    1.00E+01    BASL     1.000    0.000    1
Detdr            log    factor    2.00E-01    5.00E-02    5.00E-01    DETR     1.000    0.000    1
Detdrtemp        log    factor    1.02E+00    1.00E+00    1.07E+00    DETR     1.000    0.000    1
Detsv            log    factor    1.05E+00    5.00E-02    2.00E+00    DETR     1.000    0.000    1
ReaerA           log    factor    4.00E+00    3.00E+00    6.00E+00    REAER    1.000    0.000    1
ReaerB           log    factor    7.00E-01    5.00E-01    1.00E+00    REAER    1.000    0.000    1
ReaerC           none   factor   -1.60E+00   -1.85E+00   -1.50E+00    REAER    1.000    0.000    1
mann1            log    factor    5.00E-02    2.00E-02    9.00E-01    MANN     1.000    0.000    1
mann2            log    factor    5.00E-02    2.00E-02    9.00E-01    MANN     1.000    0.000    1
mann3            log    factor    5.00E-02    2.00E-02    9.00E-01    MANN     1.000    0.000    1
mann4            log    factor    5.00E-02    2.00E-02    9.00E-01    MANN     1.000    0.000    1
mann5            log    factor    5.00E-02    2.00E-02    9.00E-01    MANN     1.000    0.000    1
mann6            log    factor    5.00E-02    2.00E-02    9.00E-01    MANN     1.000    0.000    1
mann7            log    factor    5.00E-02    2.00E-02    9.00E-01    MANN     1.000    0.000    1
mann8            log    factor    5.00E-02    2.00E-02    9.00E-01    MANN     1.000    0.000    1
algae1           log    factor    5.00E-01    1.00E-07    1.00E+00    ALGAE    1.000    0.000    1
algae2           log    factor    5.00E-01    1.00E-07    1.00E+00    ALGAE    1.000    0.000    1
algae3           log    factor    5.00E-01    1.00E-07    1.00E+00    ALGAE    1.000    0.000    1
algae4           log    factor    5.00E-01    1.00E-07    1.00E+00    ALGAE    1.000    0.000    1
algae5           log    factor    5.00E-01    1.00E-07    1.00E+00    ALGAE    1.000    0.000    1
algae6           log    factor    5.00E-01    1.00E-07    1.00E+00    ALGAE    1.000    0.000    1
algae7           log    factor    5.00E-01    1.00E-07    1.00E+00    ALGAE    1.000    0.000    1
algae8           log    factor    5.00E-01    1.00E-07    1.00E+00    ALGAE    1.000    0.000    1
sod1             log    factor    5.00E-01    1.00E-07    1.00E+00    SOD      1.000    0.000    1
sod2             log    factor    5.00E-01    1.00E-07    1.00E+00    SOD      1.000    0.000    1
sod3             log    factor    5.00E-01    1.00E-07    1.00E+00    SOD      1.000    0.000    1
sod4             log    factor    5.00E-01    1.00E-07    1.00E+00    SOD      1.000    0.000    1
sod5             log    factor    5.00E-01    1.00E-07    1.00E+00    SOD      1.000    0.000    1
sod6             log    factor    5.00E-01    1.00E-07    1.00E+00    SOD      1.000    0.000    1
sod7             log    factor    5.00E-01    1.00E-07    1.00E+00    SOD      1.000    0.000    1
sod8             log    factor    5.00E-01    1.00E-07    1.00E+00    SOD      1.000    0.000    1
* observation groups
flow
fcob
orgn
nh4
no3
orgp
inorgp
doave
domin
domax
tempave
tempmin
tempmax
pHave
pHmin
pHmax
* observation data
 flow05               9.0000000E-02    59.6514      flow
 flow08               0.4370000        59.6514      flow
 fcob08                1.387000        7.17182      fcob
 fcob06                1.216667        7.17182      fcob
 fcob05               0.9689091        7.17182      fcob
 orgn08               0.2015000       3.391372E-03  orgn
 orgn06               0.1825833       3.391372E-03  orgn
 orgn05               0.1650833       3.391372E-03  orgn
 nh408                1.5000000E-02   1.104100E-03  nh4
 nh406                2.4500000E-02   1.104100E-03  nh4
 nh405                1.7750000E-02   1.104100E-03  nh4
 no308                0.2872500       8.755507E-03  no3
 no306                0.2907500       8.755507E-03  no3
 no305                0.3342500       8.755507E-03  no3
 orgp08               2.1083333E-02   0.104537      orgp
 orgp06               1.4250000E-02   0.104537      orgp
 orgp05               1.3000000E-02   0.104537      orgp
 inorgp08             1.0583333E-02    1.35374      inorgp
 inorgp06             1.7416667E-02    1.35374      inorgp
 inorgp05             1.9500000E-02    1.35374      inorgp
 doave0500             8.072500       0.456184      doave
 doave0600             7.741250       0.456184      doave
 doave0800             8.751250       0.456184      doave
 doave0501             8.032500       0.456184      doave
 doave0601             7.597500       0.456184      doave
 doave0801             8.652500       0.456184      doave
 doave0502             8.002500       0.456184      doave
 doave0602             7.505000       0.456184      doave
 doave0802             8.495000       0.456184      doave
 doave0503             7.997500       0.456184      doave
 doave0603             7.436250       0.456184      doave
 doave0803             8.307500       0.456184      doave
 doave0504             7.992500       0.456184      doave
 doave0604             7.386250       0.456184      doave
 doave0804             8.240000       0.456184      doave
 doave0505             8.018750       0.456184      doave
 doave0605             7.355000       0.456184      doave
 doave0805             8.108750       0.456184      doave
 doave0506             8.070000       0.456184      doave
 doave0606             7.337500       0.456184      doave
 doave0806             8.080000       0.456184      doave
 doave0507             8.245000       0.456184      doave
 doave0607             7.357500       0.456184      doave
 doave0807             8.027500       0.456184      doave
 doave0508             8.595000       0.456184      doave
 doave0608             7.438750       0.456184      doave
 doave0808             8.057500       0.456184      doave
 doave0509             9.048750       0.456184      doave
 doave0609             7.632500       0.456184      doave
 doave0809             8.166250       0.456184      doave
 doave0510             9.437500       0.456184      doave
 doave0610             7.898750       0.456184      doave
 doave0810             8.397500       0.456184      doave
 doave0511             9.598750       0.456184      doave
 doave0611             8.175000       0.456184      doave
 doave0811             8.557500       0.456184      doave
 doave0512             9.640000       0.456184      doave
 doave0612             8.500000       0.456184      doave
 doave0812             9.152500       0.456184      doave
 doave0513             9.787500       0.456184      doave
 doave0613             8.735000       0.456184      doave
 doave0813             9.592500       0.456184      doave
 doave0514             9.860000       0.456184      doave
 doave0614             8.947500       0.456184      doave
 doave0814             9.767500       0.456184      doave
 doave0515             9.817500       0.456184      doave
 doave0615             9.117500       0.456184      doave
 doave0815             9.917500       0.456184      doave
 doave0516             9.692500       0.456184      doave
 doave0616             9.190000       0.456184      doave
 doave0816             9.837500       0.456184      doave
 doave0517             9.495000       0.456184      doave
 doave0617             9.162500       0.456184      doave
 doave0817             9.802500       0.456184      doave
 doave0518             9.165000       0.456184      doave
 doave0618             9.035000       0.456184      doave
 doave0818             9.732500       0.456184      doave
 doave0519             8.777500       0.456184      doave
 doave0619             8.802500       0.456184      doave
 doave0819             9.565000       0.456184      doave
 doave0520             8.522500       0.456184      doave
 doave0620             8.510000       0.456184      doave
 doave0820             9.305000       0.456184      doave
 doave0521             8.295000       0.456184      doave
 doave0621             8.237500       0.456184      doave
 doave0821             9.145000       0.456184      doave
 doave0522             8.122500       0.456184      doave
 doave0622             7.980000       0.456184      doave
 doave0822             8.897500       0.456184      doave
 doave0523             8.015000       0.456184      doave
 doave0623             7.747500       0.456184      doave
 doave0823             8.600000       0.456184      doave
 domin0500             7.940000       0.550841      domin
 domin0600             7.490000       0.550841      domin
 domin0800             8.590000       0.550841      domin
 domin0501             7.910000       0.550841      domin
 domin0601             7.360000       0.550841      domin
 domin0801             8.500000       0.550841      domin
 domin0502             7.890000       0.550841      domin
 domin0602             7.290000       0.550841      domin
 domin0802             8.430000       0.550841      domin
 domin0503             7.910000       0.550841      domin
 domin0603             7.240000       0.550841      domin
 domin0803             8.170000       0.550841      domin
 domin0504             7.920000       0.550841      domin
 domin0604             7.210000       0.550841      domin
 domin0804             8.130000       0.550841      domin
 domin0505             7.940000       0.550841      domin
 domin0605             7.200000       0.550841      domin
 domin0805             8.010000       0.550841      domin
 domin0506             8.000000       0.550841      domin
 domin0606             7.180000       0.550841      domin
 domin0806             7.970000       0.550841      domin
 domin0507             8.120000       0.550841      domin
 domin0607             7.200000       0.550841      domin
 domin0807             7.930000       0.550841      domin
 domin0508             8.440000       0.550841      domin
 domin0608             7.290000       0.550841      domin
 domin0808             7.930000       0.550841      domin
 domin0509             8.800000       0.550841      domin
 domin0609             7.440000       0.550841      domin
 domin0809             8.010000       0.550841      domin
 domin0510             9.240000       0.550841      domin
 domin0610             7.610000       0.550841      domin
 domin0810             8.130000       0.550841      domin
 domin0511             9.440000       0.550841      domin
 domin0611             7.990000       0.550841      domin
 domin0811             8.300000       0.550841      domin
 domin0512             9.550000       0.550841      domin
 domin0612             8.390000       0.550841      domin
 domin0812             8.970000       0.550841      domin
 domin0513             9.750000       0.550841      domin
 domin0613             8.650000       0.550841      domin
 domin0813             9.370000       0.550841      domin
 domin0514             9.850000       0.550841      domin
 domin0614             8.880000       0.550841      domin
 domin0814             9.640000       0.550841      domin
 domin0515             9.790000       0.550841      domin
 domin0615             9.070000       0.550841      domin
 domin0815             9.860000       0.550841      domin
 domin0516             9.630000       0.550841      domin
 domin0616             9.170000       0.550841      domin
 domin0816             9.800000       0.550841      domin
 domin0517             9.400000       0.550841      domin
 domin0617             9.110000       0.550841      domin
 domin0817             9.760000       0.550841      domin
 domin0518             9.030000       0.550841      domin
 domin0618             8.970000       0.550841      domin
 domin0818             9.710000       0.550841      domin
 domin0519             8.670000       0.550841      domin
 domin0619             8.710000       0.550841      domin
 domin0819             9.440000       0.550841      domin
 domin0520             8.440000       0.550841      domin
 domin0620             8.400000       0.550841      domin
 domin0820             9.180000       0.550841      domin
 domin0521             8.220000       0.550841      domin
 domin0621             8.110000       0.550841      domin
 domin0821             9.080000       0.550841      domin
 domin0522             8.070000       0.550841      domin
 domin0622             7.880000       0.550841      domin
 domin0822             8.760000       0.550841      domin
 domin0523             7.990000       0.550841      domin
 domin0623             7.670000       0.550841      domin
 domin0823             8.560000       0.550841      domin
 domax0500             8.210000       0.379819      domax
 domax0600             8.000000       0.379819      domax
 domax0800             8.890000       0.379819      domax
 domax0501             8.180000       0.379819      domax
 domax0601             7.820000       0.379819      domax
 domax0801             8.830000       0.379819      domax
 domax0502             8.120000       0.379819      domax
 domax0602             7.720000       0.379819      domax
 domax0802             8.570000       0.379819      domax
 domax0503             8.100000       0.379819      domax
 domax0603             7.630000       0.379819      domax
 domax0803             8.430000       0.379819      domax
 domax0504             8.060000       0.379819      domax
 domax0604             7.570000       0.379819      domax
 domax0804             8.300000       0.379819      domax
 domax0505             8.080000       0.379819      domax
 domax0605             7.520000       0.379819      domax
 domax0805             8.240000       0.379819      domax
 domax0506             8.140000       0.379819      domax
 domax0606             7.490000       0.379819      domax
 domax0806             8.150000       0.379819      domax
 domax0507             8.360000       0.379819      domax
 domax0607             7.510000       0.379819      domax
 domax0807             8.120000       0.379819      domax
 domax0508             8.820000       0.379819      domax
 domax0608             7.630000       0.379819      domax
 domax0808             8.190000       0.379819      domax
 domax0509             9.280000       0.379819      domax
 domax0609             7.770000       0.379819      domax
 domax0809             8.410000       0.379819      domax
 domax0510             9.650000       0.379819      domax
 domax0610             8.100000       0.379819      domax
 domax0810             8.640000       0.379819      domax
 domax0511             9.730000       0.379819      domax
 domax0611             8.420000       0.379819      domax
 domax0811             8.850000       0.379819      domax
 domax0512             9.720000       0.379819      domax
 domax0612             8.590000       0.379819      domax
 domax0812             9.300000       0.379819      domax
 domax0513             9.830000       0.379819      domax
 domax0613             8.830000       0.379819      domax
 domax0813             9.870000       0.379819      domax
 domax0514             9.870000       0.379819      domax
 domax0614             9.010000       0.379819      domax
 domax0814             9.900000       0.379819      domax
 domax0515             9.850000       0.379819      domax
 domax0615             9.160000       0.379819      domax
 domax0815             10.00000       0.379819      domax
 domax0516             9.750000       0.379819      domax
 domax0616             9.210000       0.379819      domax
 domax0816             9.880000       0.379819      domax
 domax0517             9.590000       0.379819      domax
 domax0617             9.190000       0.379819      domax
 domax0817             9.820000       0.379819      domax
 domax0518             9.320000       0.379819      domax
 domax0618             9.080000       0.379819      domax
 domax0818             9.770000       0.379819      domax
 domax0519             8.910000       0.379819      domax
 domax0619             8.910000       0.379819      domax
 domax0819             9.690000       0.379819      domax
 domax0520             8.600000       0.379819      domax
 domax0620             8.590000       0.379819      domax
 domax0820             9.370000       0.379819      domax
 domax0521             8.370000       0.379819      domax
 domax0621             8.350000       0.379819      domax
 domax0821             9.190000       0.379819      domax
 domax0522             8.170000       0.379819      domax
 domax0622             8.080000       0.379819      domax
 domax0822             8.990000       0.379819      domax
 domax0523             8.050000       0.379819      domax
 domax0623             7.820000       0.379819      domax
 domax0823             8.640000       0.379819      domax
 tempave0500           20.04025       0.618771      tempave
 tempave0600           20.80500       0.618771      tempave
 tempave0800           19.69987       0.618771      tempave
 tempave0501           19.85225       0.618771      tempave
 tempave0601           20.60375       0.618771      tempave
 tempave0801           19.53950       0.618771      tempave
 tempave0502           19.66738       0.618771      tempave
 tempave0602           20.41625       0.618771      tempave
 tempave0802           19.39613       0.618771      tempave
 tempave0503           19.46788       0.618771      tempave
 tempave0603           20.24125       0.618771      tempave
 tempave0803           19.36788       0.618771      tempave
 tempave0504           19.24625       0.618771      tempave
 tempave0604           20.07750       0.618771      tempave
 tempave0804           19.17250       0.618771      tempave
 tempave0505           19.02250       0.618771      tempave
 tempave0605           19.89625       0.618771      tempave
 tempave0805           19.12450       0.618771      tempave
 tempave0506           18.80213       0.618771      tempave
 tempave0606           19.71000       0.618771      tempave
 tempave0806           18.96963       0.618771      tempave
 tempave0507           18.60363       0.618771      tempave
 tempave0607           19.52875       0.618771      tempave
 tempave0807           18.88088       0.618771      tempave
 tempave0508           18.45475       0.618771      tempave
 tempave0608           19.39000       0.618771      tempave
 tempave0808           18.80725       0.618771      tempave
 tempave0509           18.40063       0.618771      tempave
 tempave0609           19.31625       0.618771      tempave
 tempave0809           18.81625       0.618771      tempave
 tempave0510           18.46863       0.618771      tempave
 tempave0610           19.34000       0.618771      tempave
 tempave0810           18.89300       0.618771      tempave
 tempave0511           18.93525       0.618771      tempave
 tempave0611           19.61000       0.618771      tempave
 tempave0811           19.11388       0.618771      tempave
 tempave0512           19.75200       0.618771      tempave
 tempave0612           19.90500       0.618771      tempave
 tempave0812           19.44925       0.618771      tempave
 tempave0513           20.87250       0.618771      tempave
 tempave0613           20.47500       0.618771      tempave
 tempave0813           19.65250       0.618771      tempave
 tempave0514           21.85800       0.618771      tempave
 tempave0614           21.17250       0.618771      tempave
 tempave0814           20.11750       0.618771      tempave
 tempave0515           22.32975       0.618771      tempave
 tempave0615           21.84500       0.618771      tempave
 tempave0815           20.49075       0.618771      tempave
 tempave0516           22.24375       0.618771      tempave
 tempave0616           22.24250       0.618771      tempave
 tempave0816           20.65350       0.618771      tempave
 tempave0517           21.85425       0.618771      tempave
 tempave0617           22.27000       0.618771      tempave
 tempave0817           20.71175       0.618771      tempave
 tempave0518           21.46050       0.618771      tempave
 tempave0618           22.10500       0.618771      tempave
 tempave0818           20.67175       0.618771      tempave
 tempave0519           21.19925       0.618771      tempave
 tempave0619           21.93000       0.618771      tempave
 tempave0819           20.59050       0.618771      tempave
 tempave0520           21.08800       0.618771      tempave
 tempave0620           21.83000       0.618771      tempave
 tempave0820           20.39925       0.618771      tempave
 tempave0521           20.93950       0.618771      tempave
 tempave0621           21.72500       0.618771      tempave
 tempave0821           20.22950       0.618771      tempave
 tempave0522           20.74150       0.618771      tempave
 tempave0622           21.54750       0.618771      tempave
 tempave0822           20.14700       0.618771      tempave
 tempave0523           20.52875       0.618771      tempave
 tempave0623           21.35500       0.618771      tempave
 tempave0823           20.17900       0.618771      tempave
 tempmin0500           19.68200       0.641348      tempmin
 tempmin0600           20.40000       0.641348      tempmin
 tempmin0800           19.33100       0.641348      tempmin
 tempmin0501           19.52100       0.641348      tempmin
 tempmin0601           20.21000       0.641348      tempmin
 tempmin0801           19.27300       0.641348      tempmin
 tempmin0502           19.37400       0.641348      tempmin
 tempmin0602           20.09000       0.641348      tempmin
 tempmin0802           19.18600       0.641348      tempmin
 tempmin0503           19.20400       0.641348      tempmin
 tempmin0603           19.93000       0.641348      tempmin
 tempmin0803           19.17600       0.641348      tempmin
 tempmin0504           19.04400       0.641348      tempmin
 tempmin0604           19.80000       0.641348      tempmin
 tempmin0804           18.98300       0.641348      tempmin
 tempmin0505           18.86200       0.641348      tempmin
 tempmin0605           19.64000       0.641348      tempmin
 tempmin0805           18.87700       0.641348      tempmin
 tempmin0506           18.68600       0.641348      tempmin
 tempmin0606           19.44000       0.641348      tempmin
 tempmin0806           18.80800       0.641348      tempmin
 tempmin0507           18.52700       0.641348      tempmin
 tempmin0607           19.29000       0.641348      tempmin
 tempmin0807           18.68200       0.641348      tempmin
 tempmin0508           18.41300       0.641348      tempmin
 tempmin0608           19.20000       0.641348      tempmin
 tempmin0808           18.63200       0.641348      tempmin